/*--------------------------------*- C++ -*----------------------------------*\
  =========                 |
  \\      /  F ield         | OpenFOAM: The Open Source CFD Toolbox
   \\    /   O peration     | Website:  https://openfoam.org
    \\  /    A nd           | Version:  9
     \\/     M anipulation  |
\*---------------------------------------------------------------------------*/
FoamFile
{
    format      binary;
    class       polyBoundaryMesh;
    location    "constant/polyMesh";
    object      boundary;
}
// * * * * * * * * * * * * * * * * * * * * * * * * * * * * * * * * * * * * * //

3
(
    walls
    {
        type            wall;
        inGroups        List<word> 1(wall);
        nFaces          450450;
        startFace       449050;
    }
    wedges
    {
        type            symmetry;
        inGroups        List<word> 1(symmetry);
        nFaces          1000;
        startFace       899500;
    }
    centre
    {
        type            wall;
        inGroups        List<word> 1(wall);
        nFaces          450;
        startFace       900500;
    }
)

// ************************************************************************* //
