/*--------------------------------*- C++ -*----------------------------------*\
  =========                 |
  \\      /  F ield         | OpenFOAM: The Open Source CFD Toolbox
   \\    /   O peration     | Website:  https://openfoam.org
    \\  /    A nd           | Version:  9
     \\/     M anipulation  |
\*---------------------------------------------------------------------------*/
FoamFile
{
    format      binary;
    class       polyBoundaryMesh;
    location    "constant/polyMesh";
    object      boundary;
}
// * * * * * * * * * * * * * * * * * * * * * * * * * * * * * * * * * * * * * //

3
(
    walls
    {
        type            empty;
        inGroups        List<word> 1(empty);
        nFaces          720000;
        startFace       718640;
    }
    sides
    {
        type            symmetry;
        inGroups        List<word> 1(symmetry);
        nFaces          2000;
        startFace       1438640;
    }
    ends
    {
        type            wall;
        inGroups        List<word> 1(wall);
        nFaces          720;
        startFace       1440640;
    }
)

// ************************************************************************* //
