FoamFile
{
    version 2.0;
    format ascii;
    class dictionary;
    object blockMeshDict;
}

convertToMeters 0.001;

vertices
(
    (0.500000 0.000000 0.000000)
    (0.508727 0.000000 0.000000)
    (0.517606 0.000000 0.000000)
    (0.526640 0.000000 0.000000)
    (0.535831 0.000000 0.000000)
    (0.545183 0.000000 0.000000)
    (0.554698 0.000000 0.000000)
    (0.564380 0.000000 0.000000)
    (0.574230 0.000000 0.000000)
    (0.584252 0.000000 0.000000)
    (0.594449 0.000000 0.000000)
    (0.604824 0.000000 0.000000)
    (0.615381 0.000000 0.000000)
    (0.626121 0.000000 0.000000)
    (0.637049 0.000000 0.000000)
    (0.648167 0.000000 0.000000)
    (0.659480 0.000000 0.000000)
    (0.670990 0.000000 0.000000)
    (0.682701 0.000000 0.000000)
    (0.694617 0.000000 0.000000)
    (0.706740 0.000000 0.000000)
    (0.719075 0.000000 0.000000)
    (0.731625 0.000000 0.000000)
    (0.744394 0.000000 0.000000)
    (0.757387 0.000000 0.000000)
    (0.770605 0.000000 0.000000)
    (0.784055 0.000000 0.000000)
    (0.797739 0.000000 0.000000)
    (0.811663 0.000000 0.000000)
    (0.825829 0.000000 0.000000)
    (0.840242 0.000000 0.000000)
    (0.854907 0.000000 0.000000)
    (0.869828 0.000000 0.000000)
    (0.885009 0.000000 0.000000)
    (0.900456 0.000000 0.000000)
    (0.916172 0.000000 0.000000)
    (0.932162 0.000000 0.000000)
    (0.948431 0.000000 0.000000)
    (0.964984 0.000000 0.000000)
    (0.981827 0.000000 0.000000)
    (0.998963 0.000000 0.000000)
    (1.016398 0.000000 0.000000)
    (1.034137 0.000000 0.000000)
    (1.052186 0.000000 0.000000)
    (1.070551 0.000000 0.000000)
    (1.089235 0.000000 0.000000)
    (1.108246 0.000000 0.000000)
    (1.127588 0.000000 0.000000)
    (1.147269 0.000000 0.000000)
    (1.167292 0.000000 0.000000)
    (1.187665 0.000000 0.000000)
    (1.208394 0.000000 0.000000)
    (1.229484 0.000000 0.000000)
    (1.250943 0.000000 0.000000)
    (1.272776 0.000000 0.000000)
    (1.294990 0.000000 0.000000)
    (1.317592 0.000000 0.000000)
    (1.340588 0.000000 0.000000)
    (1.363986 0.000000 0.000000)
    (1.387792 0.000000 0.000000)
    (1.412014 0.000000 0.000000)
    (1.436658 0.000000 0.000000)
    (1.461732 0.000000 0.000000)
    (1.487244 0.000000 0.000000)
    (1.513202 0.000000 0.000000)
    (1.539612 0.000000 0.000000)
    (1.566483 0.000000 0.000000)
    (1.593824 0.000000 0.000000)
    (1.621641 0.000000 0.000000)
    (1.649944 0.000000 0.000000)
    (1.678741 0.000000 0.000000)
    (1.708041 0.000000 0.000000)
    (1.737852 0.000000 0.000000)
    (1.768183 0.000000 0.000000)
    (1.799043 0.000000 0.000000)
    (1.830443 0.000000 0.000000)
    (1.862390 0.000000 0.000000)
    (1.894895 0.000000 0.000000)
    (1.927967 0.000000 0.000000)
    (1.961616 0.000000 0.000000)
    (1.995853 0.000000 0.000000)
    (2.030687 0.000000 0.000000)
    (2.066129 0.000000 0.000000)
    (2.102190 0.000000 0.000000)
    (2.138880 0.000000 0.000000)
    (2.176211 0.000000 0.000000)
    (2.214193 0.000000 0.000000)
    (2.252838 0.000000 0.000000)
    (2.292157 0.000000 0.000000)
    (2.332163 0.000000 0.000000)
    (2.372867 0.000000 0.000000)
    (2.414281 0.000000 0.000000)
    (2.456418 0.000000 0.000000)
    (2.499291 0.000000 0.000000)
    (2.542912 0.000000 0.000000)
    (2.587294 0.000000 0.000000)
    (2.632451 0.000000 0.000000)
    (2.678396 0.000000 0.000000)
    (2.725142 0.000000 0.000000)
    (2.772705 0.000000 0.000000)
    (2.821098 0.000000 0.000000)
    (2.870335 0.000000 0.000000)
    (2.920432 0.000000 0.000000)
    (2.971403 0.000000 0.000000)
    (3.023264 0.000000 0.000000)
    (3.076030 0.000000 0.000000)
    (3.129717 0.000000 0.000000)
    (3.184341 0.000000 0.000000)
    (3.239918 0.000000 0.000000)
    (3.296465 0.000000 0.000000)
    (3.353999 0.000000 0.000000)
    (3.412538 0.000000 0.000000)
    (3.472098 0.000000 0.000000)
    (3.532697 0.000000 0.000000)
    (3.594354 0.000000 0.000000)
    (3.657088 0.000000 0.000000)
    (3.720916 0.000000 0.000000)
    (3.785858 0.000000 0.000000)
    (3.851934 0.000000 0.000000)
    (3.919163 0.000000 0.000000)
    (3.987565 0.000000 0.000000)
    (4.057161 0.000000 0.000000)
    (4.127972 0.000000 0.000000)
    (4.200019 0.000000 0.000000)
    (4.273323 0.000000 0.000000)
    (4.347906 0.000000 0.000000)
    (4.423792 0.000000 0.000000)
    (4.501001 0.000000 0.000000)
    (4.579559 0.000000 0.000000)
    (4.659487 0.000000 0.000000)
    (4.740811 0.000000 0.000000)
    (4.823553 0.000000 0.000000)
    (4.907740 0.000000 0.000000)
    (4.993396 0.000000 0.000000)
    (5.080548 0.000000 0.000000)
    (5.169220 0.000000 0.000000)
    (5.259440 0.000000 0.000000)
    (5.351234 0.000000 0.000000)
    (5.444631 0.000000 0.000000)
    (5.539658 0.000000 0.000000)
    (5.636343 0.000000 0.000000)
    (5.734716 0.000000 0.000000)
    (5.834805 0.000000 0.000000)
    (5.936642 0.000000 0.000000)
    (0.499924 0.008726 0.000000)
    (0.508649 0.008879 0.000000)
    (0.517527 0.009033 0.000000)
    (0.526559 0.009191 0.000000)
    (0.535750 0.009352 0.000000)
    (0.545100 0.009515 0.000000)
    (0.554614 0.009681 0.000000)
    (0.564294 0.009850 0.000000)
    (0.574143 0.010022 0.000000)
    (0.584163 0.010197 0.000000)
    (0.594359 0.010375 0.000000)
    (0.604732 0.010556 0.000000)
    (0.615287 0.010740 0.000000)
    (0.626026 0.010927 0.000000)
    (0.636952 0.011118 0.000000)
    (0.648069 0.011312 0.000000)
    (0.659380 0.011510 0.000000)
    (0.670888 0.011710 0.000000)
    (0.682597 0.011915 0.000000)
    (0.694511 0.012123 0.000000)
    (0.706632 0.012334 0.000000)
    (0.718965 0.012550 0.000000)
    (0.731514 0.012769 0.000000)
    (0.744281 0.012991 0.000000)
    (0.757271 0.013218 0.000000)
    (0.770488 0.013449 0.000000)
    (0.783936 0.013684 0.000000)
    (0.797618 0.013922 0.000000)
    (0.811539 0.014165 0.000000)
    (0.825703 0.014413 0.000000)
    (0.840114 0.014664 0.000000)
    (0.854777 0.014920 0.000000)
    (0.869696 0.015181 0.000000)
    (0.884875 0.015446 0.000000)
    (0.900319 0.015715 0.000000)
    (0.916032 0.015989 0.000000)
    (0.932020 0.016268 0.000000)
    (0.948287 0.016552 0.000000)
    (0.964837 0.016841 0.000000)
    (0.981677 0.017135 0.000000)
    (0.998811 0.017434 0.000000)
    (1.016243 0.017739 0.000000)
    (1.033980 0.018048 0.000000)
    (1.052026 0.018363 0.000000)
    (1.070388 0.018684 0.000000)
    (1.089069 0.019010 0.000000)
    (1.108077 0.019342 0.000000)
    (1.127417 0.019679 0.000000)
    (1.147094 0.020023 0.000000)
    (1.167114 0.020372 0.000000)
    (1.187484 0.020728 0.000000)
    (1.208210 0.021089 0.000000)
    (1.229297 0.021457 0.000000)
    (1.250752 0.021832 0.000000)
    (1.272582 0.022213 0.000000)
    (1.294793 0.022601 0.000000)
    (1.317391 0.022995 0.000000)
    (1.340384 0.023396 0.000000)
    (1.363778 0.023805 0.000000)
    (1.387581 0.024220 0.000000)
    (1.411799 0.024643 0.000000)
    (1.436439 0.025073 0.000000)
    (1.461510 0.025511 0.000000)
    (1.487018 0.025956 0.000000)
    (1.512971 0.026409 0.000000)
    (1.539378 0.026870 0.000000)
    (1.566245 0.027339 0.000000)
    (1.593581 0.027816 0.000000)
    (1.621394 0.028302 0.000000)
    (1.649693 0.028795 0.000000)
    (1.678485 0.029298 0.000000)
    (1.707780 0.029809 0.000000)
    (1.737587 0.030330 0.000000)
    (1.767913 0.030859 0.000000)
    (1.798769 0.031398 0.000000)
    (1.830164 0.031946 0.000000)
    (1.862106 0.032503 0.000000)
    (1.894606 0.033070 0.000000)
    (1.927673 0.033648 0.000000)
    (1.961317 0.034235 0.000000)
    (1.995549 0.034832 0.000000)
    (2.030378 0.035440 0.000000)
    (2.065815 0.036059 0.000000)
    (2.101870 0.036688 0.000000)
    (2.138554 0.037329 0.000000)
    (2.175879 0.037980 0.000000)
    (2.213855 0.038643 0.000000)
    (2.252495 0.039317 0.000000)
    (2.291808 0.040004 0.000000)
    (2.331808 0.040702 0.000000)
    (2.372505 0.041412 0.000000)
    (2.413913 0.042135 0.000000)
    (2.456044 0.042870 0.000000)
    (2.498910 0.043619 0.000000)
    (2.542524 0.044380 0.000000)
    (2.586900 0.045155 0.000000)
    (2.632050 0.045943 0.000000)
    (2.677988 0.046744 0.000000)
    (2.724727 0.047560 0.000000)
    (2.772283 0.048390 0.000000)
    (2.820668 0.049235 0.000000)
    (2.869898 0.050094 0.000000)
    (2.919987 0.050969 0.000000)
    (2.970951 0.051858 0.000000)
    (3.022804 0.052763 0.000000)
    (3.075561 0.053684 0.000000)
    (3.129240 0.054621 0.000000)
    (3.183856 0.055574 0.000000)
    (3.239424 0.056544 0.000000)
    (3.295963 0.057531 0.000000)
    (3.353488 0.058535 0.000000)
    (3.412018 0.059557 0.000000)
    (3.471569 0.060596 0.000000)
    (3.532159 0.061654 0.000000)
    (3.593807 0.062730 0.000000)
    (3.656531 0.063825 0.000000)
    (3.720349 0.064939 0.000000)
    (3.785282 0.066072 0.000000)
    (3.851347 0.067226 0.000000)
    (3.918566 0.068399 0.000000)
    (3.986958 0.069593 0.000000)
    (4.056543 0.070807 0.000000)
    (4.127343 0.072043 0.000000)
    (4.199379 0.073300 0.000000)
    (4.272672 0.074580 0.000000)
    (4.347244 0.075881 0.000000)
    (4.423118 0.077206 0.000000)
    (4.500316 0.078553 0.000000)
    (4.578861 0.079924 0.000000)
    (4.658778 0.081319 0.000000)
    (4.740089 0.082739 0.000000)
    (4.822819 0.084183 0.000000)
    (4.906993 0.085652 0.000000)
    (4.992636 0.087147 0.000000)
    (5.079774 0.088668 0.000000)
    (5.168433 0.090215 0.000000)
    (5.258639 0.091790 0.000000)
    (5.350419 0.093392 0.000000)
    (5.443802 0.095022 0.000000)
    (5.538814 0.096680 0.000000)
    (5.635485 0.098368 0.000000)
    (5.733842 0.100085 0.000000)
    (5.833917 0.101831 0.000000)
    (5.935738 0.103609 0.000000)
    (0.499695 0.017450 0.000000)
    (0.508417 0.017754 0.000000)
    (0.517290 0.018064 0.000000)
    (0.526319 0.018379 0.000000)
    (0.535505 0.018700 0.000000)
    (0.544851 0.019027 0.000000)
    (0.554360 0.019359 0.000000)
    (0.564036 0.019697 0.000000)
    (0.573880 0.020040 0.000000)
    (0.583896 0.020390 0.000000)
    (0.594087 0.020746 0.000000)
    (0.604456 0.021108 0.000000)
    (0.615006 0.021476 0.000000)
    (0.625740 0.021851 0.000000)
    (0.636661 0.022233 0.000000)
    (0.647773 0.022621 0.000000)
    (0.659078 0.023016 0.000000)
    (0.670581 0.023417 0.000000)
    (0.682285 0.023826 0.000000)
    (0.694193 0.024242 0.000000)
    (0.706309 0.024665 0.000000)
    (0.718637 0.025095 0.000000)
    (0.731179 0.025533 0.000000)
    (0.743941 0.025979 0.000000)
    (0.756925 0.026432 0.000000)
    (0.770136 0.026894 0.000000)
    (0.783577 0.027363 0.000000)
    (0.797253 0.027841 0.000000)
    (0.811168 0.028327 0.000000)
    (0.825326 0.028821 0.000000)
    (0.839730 0.029324 0.000000)
    (0.854386 0.029836 0.000000)
    (0.869298 0.030357 0.000000)
    (0.884470 0.030886 0.000000)
    (0.899907 0.031425 0.000000)
    (0.915614 0.031974 0.000000)
    (0.931594 0.032532 0.000000)
    (0.947853 0.033100 0.000000)
    (0.964397 0.033677 0.000000)
    (0.981228 0.034265 0.000000)
    (0.998354 0.034863 0.000000)
    (1.015779 0.035472 0.000000)
    (1.033507 0.036091 0.000000)
    (1.051545 0.036721 0.000000)
    (1.069898 0.037362 0.000000)
    (1.088572 0.038014 0.000000)
    (1.107571 0.038677 0.000000)
    (1.126902 0.039352 0.000000)
    (1.146570 0.040039 0.000000)
    (1.166581 0.040738 0.000000)
    (1.186942 0.041449 0.000000)
    (1.207658 0.042172 0.000000)
    (1.228735 0.042908 0.000000)
    (1.250181 0.043657 0.000000)
    (1.272001 0.044419 0.000000)
    (1.294201 0.045195 0.000000)
    (1.316789 0.045983 0.000000)
    (1.339772 0.046786 0.000000)
    (1.363155 0.047602 0.000000)
    (1.386947 0.048433 0.000000)
    (1.411153 0.049279 0.000000)
    (1.435783 0.050139 0.000000)
    (1.460842 0.051014 0.000000)
    (1.486338 0.051904 0.000000)
    (1.512280 0.052810 0.000000)
    (1.538674 0.053732 0.000000)
    (1.565529 0.054669 0.000000)
    (1.592853 0.055624 0.000000)
    (1.620653 0.056594 0.000000)
    (1.648939 0.057582 0.000000)
    (1.677718 0.058587 0.000000)
    (1.707000 0.059610 0.000000)
    (1.736793 0.060650 0.000000)
    (1.767106 0.061709 0.000000)
    (1.797947 0.062786 0.000000)
    (1.829328 0.063882 0.000000)
    (1.861255 0.064996 0.000000)
    (1.893740 0.066131 0.000000)
    (1.926792 0.067285 0.000000)
    (1.960421 0.068459 0.000000)
    (1.994637 0.069654 0.000000)
    (2.029450 0.070870 0.000000)
    (2.064871 0.072107 0.000000)
    (2.100909 0.073365 0.000000)
    (2.137577 0.074646 0.000000)
    (2.174885 0.075949 0.000000)
    (2.212844 0.077274 0.000000)
    (2.251465 0.078623 0.000000)
    (2.290761 0.079995 0.000000)
    (2.330742 0.081391 0.000000)
    (2.371421 0.082812 0.000000)
    (2.412810 0.084257 0.000000)
    (2.454922 0.085728 0.000000)
    (2.497768 0.087224 0.000000)
    (2.541363 0.088746 0.000000)
    (2.585718 0.090295 0.000000)
    (2.630847 0.091871 0.000000)
    (2.676764 0.093475 0.000000)
    (2.723482 0.095106 0.000000)
    (2.771016 0.096766 0.000000)
    (2.819379 0.098455 0.000000)
    (2.868587 0.100173 0.000000)
    (2.918653 0.101922 0.000000)
    (2.969593 0.103700 0.000000)
    (3.021422 0.105510 0.000000)
    (3.074156 0.107352 0.000000)
    (3.127810 0.109226 0.000000)
    (3.182401 0.111132 0.000000)
    (3.237944 0.113072 0.000000)
    (3.294457 0.115045 0.000000)
    (3.351956 0.117053 0.000000)
    (3.410459 0.119096 0.000000)
    (3.469983 0.121174 0.000000)
    (3.530545 0.123289 0.000000)
    (3.592165 0.125441 0.000000)
    (3.654860 0.127631 0.000000)
    (3.718649 0.129858 0.000000)
    (3.783552 0.132125 0.000000)
    (3.849587 0.134431 0.000000)
    (3.916775 0.136777 0.000000)
    (3.985136 0.139164 0.000000)
    (4.054690 0.141593 0.000000)
    (4.125457 0.144064 0.000000)
    (4.197460 0.146579 0.000000)
    (4.270720 0.149137 0.000000)
    (4.345258 0.151740 0.000000)
    (4.421097 0.154388 0.000000)
    (4.498260 0.157083 0.000000)
    (4.576769 0.159824 0.000000)
    (4.656649 0.162614 0.000000)
    (4.737923 0.165452 0.000000)
    (4.820615 0.168340 0.000000)
    (4.904751 0.171278 0.000000)
    (4.990355 0.174267 0.000000)
    (5.077453 0.177309 0.000000)
    (5.166071 0.180403 0.000000)
    (5.256236 0.183552 0.000000)
    (5.347975 0.186755 0.000000)
    (5.441314 0.190015 0.000000)
    (5.536283 0.193331 0.000000)
    (5.632910 0.196706 0.000000)
    (5.731222 0.200139 0.000000)
    (5.831251 0.203632 0.000000)
    (5.933026 0.207186 0.000000)
    (0.499315 0.026168 0.000000)
    (0.508029 0.026625 0.000000)
    (0.516896 0.027089 0.000000)
    (0.525918 0.027562 0.000000)
    (0.535097 0.028043 0.000000)
    (0.544436 0.028533 0.000000)
    (0.553938 0.029031 0.000000)
    (0.563606 0.029537 0.000000)
    (0.573443 0.030053 0.000000)
    (0.583451 0.030577 0.000000)
    (0.593635 0.031111 0.000000)
    (0.603996 0.031654 0.000000)
    (0.614537 0.032207 0.000000)
    (0.625263 0.032769 0.000000)
    (0.636176 0.033341 0.000000)
    (0.647279 0.033922 0.000000)
    (0.658576 0.034515 0.000000)
    (0.670071 0.035117 0.000000)
    (0.681766 0.035730 0.000000)
    (0.693665 0.036353 0.000000)
    (0.705771 0.036988 0.000000)
    (0.718089 0.037633 0.000000)
    (0.730622 0.038290 0.000000)
    (0.743374 0.038959 0.000000)
    (0.756349 0.039639 0.000000)
    (0.769549 0.040330 0.000000)
    (0.782980 0.041034 0.000000)
    (0.796646 0.041750 0.000000)
    (0.810550 0.042479 0.000000)
    (0.824697 0.043221 0.000000)
    (0.839091 0.043975 0.000000)
    (0.853735 0.044742 0.000000)
    (0.868636 0.045523 0.000000)
    (0.883797 0.046318 0.000000)
    (0.899222 0.047126 0.000000)
    (0.914916 0.047949 0.000000)
    (0.930884 0.048786 0.000000)
    (0.947131 0.049637 0.000000)
    (0.963662 0.050503 0.000000)
    (0.980481 0.051385 0.000000)
    (0.997594 0.052282 0.000000)
    (1.015005 0.053194 0.000000)
    (1.032720 0.054123 0.000000)
    (1.050744 0.055067 0.000000)
    (1.069083 0.056028 0.000000)
    (1.087742 0.057006 0.000000)
    (1.106727 0.058001 0.000000)
    (1.126043 0.059013 0.000000)
    (1.145696 0.060043 0.000000)
    (1.165693 0.061091 0.000000)
    (1.186038 0.062158 0.000000)
    (1.206738 0.063242 0.000000)
    (1.227799 0.064346 0.000000)
    (1.249229 0.065469 0.000000)
    (1.271032 0.066612 0.000000)
    (1.293215 0.067775 0.000000)
    (1.315786 0.068957 0.000000)
    (1.338751 0.070161 0.000000)
    (1.362117 0.071386 0.000000)
    (1.385890 0.072631 0.000000)
    (1.410079 0.073899 0.000000)
    (1.434689 0.075189 0.000000)
    (1.459729 0.076501 0.000000)
    (1.485206 0.077836 0.000000)
    (1.511128 0.079195 0.000000)
    (1.537502 0.080577 0.000000)
    (1.564337 0.081983 0.000000)
    (1.591639 0.083414 0.000000)
    (1.619419 0.084870 0.000000)
    (1.647683 0.086351 0.000000)
    (1.676440 0.087859 0.000000)
    (1.705700 0.089392 0.000000)
    (1.735470 0.090952 0.000000)
    (1.765760 0.092540 0.000000)
    (1.796578 0.094155 0.000000)
    (1.827934 0.095798 0.000000)
    (1.859838 0.097470 0.000000)
    (1.892298 0.099171 0.000000)
    (1.925325 0.100902 0.000000)
    (1.958928 0.102663 0.000000)
    (1.993118 0.104455 0.000000)
    (2.027904 0.106278 0.000000)
    (2.063298 0.108133 0.000000)
    (2.099309 0.110020 0.000000)
    (2.135949 0.111940 0.000000)
    (2.173228 0.113894 0.000000)
    (2.211158 0.115882 0.000000)
    (2.249750 0.117904 0.000000)
    (2.289016 0.119962 0.000000)
    (2.328967 0.122056 0.000000)
    (2.369615 0.124186 0.000000)
    (2.410972 0.126354 0.000000)
    (2.453052 0.128559 0.000000)
    (2.495866 0.130803 0.000000)
    (2.539427 0.133086 0.000000)
    (2.583748 0.135408 0.000000)
    (2.628843 0.137772 0.000000)
    (2.674725 0.140176 0.000000)
    (2.721408 0.142623 0.000000)
    (2.768905 0.145112 0.000000)
    (2.817232 0.147645 0.000000)
    (2.866402 0.150222 0.000000)
    (2.916430 0.152844 0.000000)
    (2.967331 0.155511 0.000000)
    (3.019121 0.158225 0.000000)
    (3.071814 0.160987 0.000000)
    (3.125428 0.163797 0.000000)
    (3.179977 0.166656 0.000000)
    (3.235478 0.169564 0.000000)
    (3.291947 0.172524 0.000000)
    (3.349403 0.175535 0.000000)
    (3.407861 0.178598 0.000000)
    (3.467339 0.181716 0.000000)
    (3.527856 0.184887 0.000000)
    (3.589428 0.188114 0.000000)
    (3.652076 0.191397 0.000000)
    (3.715817 0.194738 0.000000)
    (3.780670 0.198137 0.000000)
    (3.846655 0.201595 0.000000)
    (3.913792 0.205113 0.000000)
    (3.982100 0.208693 0.000000)
    (4.051601 0.212335 0.000000)
    (4.122315 0.216041 0.000000)
    (4.194263 0.219812 0.000000)
    (4.267466 0.223648 0.000000)
    (4.341948 0.227552 0.000000)
    (4.417729 0.231523 0.000000)
    (4.494833 0.235564 0.000000)
    (4.573283 0.239676 0.000000)
    (4.653102 0.243859 0.000000)
    (4.734313 0.248115 0.000000)
    (4.816943 0.252445 0.000000)
    (4.901014 0.256851 0.000000)
    (4.986553 0.261334 0.000000)
    (5.073585 0.265895 0.000000)
    (5.162136 0.270536 0.000000)
    (5.252232 0.275258 0.000000)
    (5.343901 0.280062 0.000000)
    (5.437169 0.284950 0.000000)
    (5.532066 0.289923 0.000000)
    (5.628619 0.294983 0.000000)
    (5.726857 0.300132 0.000000)
    (5.826809 0.305370 0.000000)
    (5.928506 0.310700 0.000000)
    (0.498782 0.034878 0.000000)
    (0.507487 0.035487 0.000000)
    (0.516345 0.036106 0.000000)
    (0.525357 0.036737 0.000000)
    (0.534526 0.037378 0.000000)
    (0.543855 0.038030 0.000000)
    (0.553347 0.038694 0.000000)
    (0.563005 0.039369 0.000000)
    (0.572831 0.040056 0.000000)
    (0.582829 0.040755 0.000000)
    (0.593001 0.041467 0.000000)
    (0.603351 0.042190 0.000000)
    (0.613882 0.042927 0.000000)
    (0.624596 0.043676 0.000000)
    (0.635497 0.044438 0.000000)
    (0.646589 0.045214 0.000000)
    (0.657874 0.046003 0.000000)
    (0.669356 0.046806 0.000000)
    (0.681038 0.047623 0.000000)
    (0.692925 0.048454 0.000000)
    (0.705018 0.049300 0.000000)
    (0.717323 0.050160 0.000000)
    (0.729843 0.051036 0.000000)
    (0.742581 0.051926 0.000000)
    (0.755542 0.052833 0.000000)
    (0.768728 0.053755 0.000000)
    (0.782145 0.054693 0.000000)
    (0.795796 0.055647 0.000000)
    (0.809685 0.056619 0.000000)
    (0.823817 0.057607 0.000000)
    (0.838195 0.058612 0.000000)
    (0.852825 0.059635 0.000000)
    (0.867709 0.060676 0.000000)
    (0.882854 0.061735 0.000000)
    (0.898262 0.062813 0.000000)
    (0.913940 0.063909 0.000000)
    (0.929891 0.065024 0.000000)
    (0.946121 0.066159 0.000000)
    (0.962634 0.067314 0.000000)
    (0.979435 0.068489 0.000000)
    (0.996529 0.069684 0.000000)
    (1.013922 0.070900 0.000000)
    (1.031618 0.072138 0.000000)
    (1.049623 0.073397 0.000000)
    (1.067943 0.074678 0.000000)
    (1.086582 0.075981 0.000000)
    (1.105546 0.077307 0.000000)
    (1.124842 0.078657 0.000000)
    (1.144474 0.080029 0.000000)
    (1.164449 0.081426 0.000000)
    (1.184772 0.082847 0.000000)
    (1.205450 0.084293 0.000000)
    (1.226489 0.085765 0.000000)
    (1.247896 0.087261 0.000000)
    (1.269676 0.088784 0.000000)
    (1.291836 0.090334 0.000000)
    (1.314382 0.091911 0.000000)
    (1.337323 0.093515 0.000000)
    (1.360663 0.095147 0.000000)
    (1.384412 0.096807 0.000000)
    (1.408574 0.098497 0.000000)
    (1.433158 0.100216 0.000000)
    (1.458172 0.101965 0.000000)
    (1.483622 0.103745 0.000000)
    (1.509516 0.105556 0.000000)
    (1.535862 0.107398 0.000000)
    (1.562667 0.109272 0.000000)
    (1.589941 0.111180 0.000000)
    (1.617691 0.113120 0.000000)
    (1.645925 0.115094 0.000000)
    (1.674652 0.117103 0.000000)
    (1.703880 0.119147 0.000000)
    (1.733618 0.121226 0.000000)
    (1.763876 0.123342 0.000000)
    (1.794661 0.125495 0.000000)
    (1.825984 0.127685 0.000000)
    (1.857853 0.129914 0.000000)
    (1.890279 0.132181 0.000000)
    (1.923270 0.134488 0.000000)
    (1.956838 0.136835 0.000000)
    (1.990991 0.139224 0.000000)
    (2.025740 0.141654 0.000000)
    (2.061096 0.144126 0.000000)
    (2.097069 0.146641 0.000000)
    (2.133670 0.149201 0.000000)
    (2.170910 0.151805 0.000000)
    (2.208799 0.154454 0.000000)
    (2.247350 0.157150 0.000000)
    (2.286574 0.159893 0.000000)
    (2.326482 0.162683 0.000000)
    (2.367087 0.165523 0.000000)
    (2.408400 0.168412 0.000000)
    (2.450434 0.171351 0.000000)
    (2.493203 0.174342 0.000000)
    (2.536717 0.177385 0.000000)
    (2.580991 0.180480 0.000000)
    (2.626038 0.183630 0.000000)
    (2.671871 0.186835 0.000000)
    (2.718504 0.190096 0.000000)
    (2.765951 0.193414 0.000000)
    (2.814226 0.196790 0.000000)
    (2.863343 0.200224 0.000000)
    (2.913318 0.203719 0.000000)
    (2.964165 0.207275 0.000000)
    (3.015900 0.210892 0.000000)
    (3.068537 0.214573 0.000000)
    (3.122093 0.218318 0.000000)
    (3.176584 0.222128 0.000000)
    (3.232026 0.226005 0.000000)
    (3.288435 0.229950 0.000000)
    (3.345829 0.233963 0.000000)
    (3.404225 0.238047 0.000000)
    (3.463640 0.242201 0.000000)
    (3.524092 0.246429 0.000000)
    (3.585599 0.250729 0.000000)
    (3.648179 0.255106 0.000000)
    (3.711852 0.259558 0.000000)
    (3.776636 0.264088 0.000000)
    (3.842551 0.268697 0.000000)
    (3.909616 0.273387 0.000000)
    (3.977852 0.278158 0.000000)
    (4.047278 0.283013 0.000000)
    (4.117917 0.287953 0.000000)
    (4.189788 0.292978 0.000000)
    (4.262913 0.298092 0.000000)
    (4.337315 0.303295 0.000000)
    (4.413016 0.308588 0.000000)
    (4.490037 0.313974 0.000000)
    (4.568403 0.319454 0.000000)
    (4.648137 0.325029 0.000000)
    (4.729262 0.330702 0.000000)
    (4.811803 0.336474 0.000000)
    (4.895785 0.342347 0.000000)
    (4.981233 0.348322 0.000000)
    (5.068172 0.354401 0.000000)
    (5.156628 0.360587 0.000000)
    (5.246628 0.366880 0.000000)
    (5.338199 0.373283 0.000000)
    (5.431368 0.379798 0.000000)
    (5.526163 0.386427 0.000000)
    (5.622613 0.393171 0.000000)
    (5.720746 0.400034 0.000000)
    (5.820592 0.407015 0.000000)
    (5.922181 0.414119 0.000000)
    (0.498097 0.043578 0.000000)
    (0.506791 0.044338 0.000000)
    (0.515636 0.045112 0.000000)
    (0.524636 0.045900 0.000000)
    (0.533792 0.046701 0.000000)
    (0.543109 0.047516 0.000000)
    (0.552588 0.048345 0.000000)
    (0.562232 0.049189 0.000000)
    (0.572045 0.050047 0.000000)
    (0.582029 0.050921 0.000000)
    (0.592187 0.051810 0.000000)
    (0.602523 0.052714 0.000000)
    (0.613039 0.053634 0.000000)
    (0.623738 0.054570 0.000000)
    (0.634625 0.055522 0.000000)
    (0.645701 0.056492 0.000000)
    (0.656971 0.057477 0.000000)
    (0.668437 0.058481 0.000000)
    (0.680103 0.059501 0.000000)
    (0.691973 0.060540 0.000000)
    (0.704051 0.061596 0.000000)
    (0.716339 0.062672 0.000000)
    (0.728841 0.063765 0.000000)
    (0.741562 0.064878 0.000000)
    (0.754504 0.066011 0.000000)
    (0.767673 0.067163 0.000000)
    (0.781071 0.068335 0.000000)
    (0.794704 0.069528 0.000000)
    (0.808574 0.070741 0.000000)
    (0.822686 0.071976 0.000000)
    (0.837045 0.073232 0.000000)
    (0.851654 0.074510 0.000000)
    (0.866518 0.075811 0.000000)
    (0.881642 0.077134 0.000000)
    (0.897029 0.078480 0.000000)
    (0.912685 0.079850 0.000000)
    (0.928615 0.081243 0.000000)
    (0.944822 0.082661 0.000000)
    (0.961312 0.084104 0.000000)
    (0.978090 0.085572 0.000000)
    (0.995161 0.087065 0.000000)
    (1.012530 0.088585 0.000000)
    (1.030202 0.090131 0.000000)
    (1.048183 0.091704 0.000000)
    (1.066477 0.093305 0.000000)
    (1.085090 0.094933 0.000000)
    (1.104029 0.096590 0.000000)
    (1.123298 0.098276 0.000000)
    (1.142903 0.099991 0.000000)
    (1.162850 0.101736 0.000000)
    (1.183146 0.103512 0.000000)
    (1.203796 0.105318 0.000000)
    (1.224806 0.107157 0.000000)
    (1.246183 0.109027 0.000000)
    (1.267933 0.110930 0.000000)
    (1.290062 0.112866 0.000000)
    (1.312578 0.114836 0.000000)
    (1.335487 0.116840 0.000000)
    (1.358796 0.118879 0.000000)
    (1.382511 0.120954 0.000000)
    (1.406641 0.123065 0.000000)
    (1.431191 0.125213 0.000000)
    (1.456170 0.127398 0.000000)
    (1.481585 0.129622 0.000000)
    (1.507444 0.131884 0.000000)
    (1.533753 0.134186 0.000000)
    (1.560522 0.136528 0.000000)
    (1.587759 0.138911 0.000000)
    (1.615470 0.141335 0.000000)
    (1.643666 0.143802 0.000000)
    (1.672353 0.146312 0.000000)
    (1.701541 0.148866 0.000000)
    (1.731238 0.151464 0.000000)
    (1.761454 0.154107 0.000000)
    (1.792197 0.156797 0.000000)
    (1.823477 0.159534 0.000000)
    (1.855303 0.162318 0.000000)
    (1.887684 0.165151 0.000000)
    (1.920630 0.168033 0.000000)
    (1.954152 0.170966 0.000000)
    (1.988258 0.173950 0.000000)
    (2.022960 0.176986 0.000000)
    (2.058267 0.180075 0.000000)
    (2.094191 0.183218 0.000000)
    (2.130741 0.186416 0.000000)
    (2.167930 0.189669 0.000000)
    (2.205767 0.192980 0.000000)
    (2.244265 0.196348 0.000000)
    (2.283435 0.199775 0.000000)
    (2.323288 0.203261 0.000000)
    (2.363837 0.206809 0.000000)
    (2.405094 0.210418 0.000000)
    (2.447071 0.214091 0.000000)
    (2.489780 0.217828 0.000000)
    (2.533235 0.221629 0.000000)
    (2.577448 0.225498 0.000000)
    (2.622433 0.229433 0.000000)
    (2.668203 0.233438 0.000000)
    (2.714772 0.237512 0.000000)
    (2.762154 0.241657 0.000000)
    (2.810363 0.245875 0.000000)
    (2.859413 0.250166 0.000000)
    (2.909319 0.254532 0.000000)
    (2.960096 0.258975 0.000000)
    (3.011760 0.263495 0.000000)
    (3.064325 0.268094 0.000000)
    (3.117807 0.272773 0.000000)
    (3.172223 0.277534 0.000000)
    (3.227589 0.282377 0.000000)
    (3.283921 0.287306 0.000000)
    (3.341236 0.292320 0.000000)
    (3.399552 0.297422 0.000000)
    (3.458885 0.302613 0.000000)
    (3.519254 0.307895 0.000000)
    (3.580677 0.313269 0.000000)
    (3.643171 0.318736 0.000000)
    (3.706757 0.324299 0.000000)
    (3.771452 0.329959 0.000000)
    (3.837276 0.335718 0.000000)
    (3.904249 0.341578 0.000000)
    (3.972391 0.347539 0.000000)
    (4.041723 0.353605 0.000000)
    (4.112264 0.359776 0.000000)
    (4.184036 0.366056 0.000000)
    (4.257062 0.372445 0.000000)
    (4.331361 0.378945 0.000000)
    (4.406958 0.385559 0.000000)
    (4.483874 0.392288 0.000000)
    (4.562132 0.399135 0.000000)
    (4.641756 0.406101 0.000000)
    (4.722770 0.413189 0.000000)
    (4.805198 0.420400 0.000000)
    (4.889065 0.427738 0.000000)
    (4.974395 0.435203 0.000000)
    (5.061215 0.442799 0.000000)
    (5.149549 0.450527 0.000000)
    (5.239426 0.458390 0.000000)
    (5.330871 0.466391 0.000000)
    (5.423913 0.474531 0.000000)
    (5.518578 0.482813 0.000000)
    (5.614895 0.491240 0.000000)
    (5.712893 0.499813 0.000000)
    (5.812602 0.508537 0.000000)
    (5.914051 0.517412 0.000000)
    (0.497261 0.052264 0.000000)
    (0.505940 0.053176 0.000000)
    (0.514770 0.054105 0.000000)
    (0.523755 0.055049 0.000000)
    (0.532896 0.056010 0.000000)
    (0.542197 0.056987 0.000000)
    (0.551660 0.057982 0.000000)
    (0.561288 0.058994 0.000000)
    (0.571084 0.060023 0.000000)
    (0.581052 0.061071 0.000000)
    (0.591193 0.062137 0.000000)
    (0.601511 0.063221 0.000000)
    (0.612009 0.064325 0.000000)
    (0.622691 0.065447 0.000000)