/*--------------------------------*- C++ -*----------------------------------*\
  | =========                 |                                                 |
  | \\      /  F ield         | OpenFOAM: The Open Source CFD Toolbox           |
  |  \\    /   O peration     | Version:  2.3.0                                 |
  |   \\  /    A nd           | Web:      www.OpenFOAM.org                      |
  |    \\/     M anipulation  |                                                 |
  \*---------------------------------------------------------------------------*/
FoamFile
{
  version     2.0;
  format      ascii;
  class       dictionary;
  object      blockMeshDict;
}
// * * * * * * * * * * * * * * * * * * * * * * * * * * * * * * * * * * * * * //

convertToMeters 1e-3;

vertices
(
    (6 0 -0.5)   //0
    (0 6 -0.5)   //1
    (-6 0 -0.5)  //2
    (0 -6 -0.5)  //3 bottom circle

    (6 0 0.5)    //4
    (0 6 0.5)    //5
    (-6 0 0.5)   //6
    (0 -6 0.5)   //7 top circle

    (0 0 -0.5)	 //8
    (0 0 0.5)    //9 circle centres
);

blocks
(
 hex (0 1 8 8 4 5 9 9) (500 500 1) simpleGrading (1 1 1)
 );

edges
(
 arc 0 1 (4.2426 4.2426 -0.5) //(cx+rcos45 cy+rsin45 cz) for bottom circle arc

 arc 4 5 (4.2426 4.2426 0.5) //top circle arc
);

boundary
(
    walls
    {
        type wall;
        faces
        (
            (0 8 8 1)
            (5 9 9 4)
	    (0 1 5 4)
        );
    }
    wedges
    {
	type symmetry;
	faces
	(
	    (0 4 9 8)
	    (1 8 9 5)
	);
    }
 );

mergePatchPairs
(
);

// ************************************************************************* //
